5
energy=0.000000
Ar 14.53106278 14.82847855 0.68992204
Ar 14.66282467 10.92737097 10.63281706
Ar 9.16233179 4.28707433 8.10413849
Ar 1.96080304 8.64514235 12.06106594
Ar 7.32036410 5.56459516 11.90904165
58
energy=-1.317191
Ar 14.44263755 14.75620848 0.62026592
Ar 14.43123956 10.62520749 10.63047866
Ar 8.58305366 4.39189386 8.37116621
Ar 1.88066950 8.81563678 12.27406470
Ar 7.59937909 5.07850616 11.96257291
Ar 13.28218925 1.21496986 12.10972667
Ar 5.09062954 12.00513384 3.32189228
Ar 0.13360820 4.12163396 7.15166401
Ar 11.15907849 11.67969424 6.49624544
Ar 8.53747134 6.67106255 5.94456523
Ar 7.56017578 1.63649581 2.07167405
Ar 6.82198510 1.97694479 6.11495705
Ar 9.11486054 10.77195611 12.29729664
Ar 12.47286750 11.00880916 3.08798769
Ar 11.66022057 6.04026842 2.23316060
Ar 10.96653529 1.61893861 10.87663822
Ar 6.42266958 7.72929792 11.62812994
Ar 3.72394279 1.83345626 9.07243901
Ar 7.29965585 0.60776647 3.83237344
Ar 2.01692782 1.94317511 1.65469828
Ar 5.58161305 13.43736053 11.89013203
Ar 12.14170118 0.91234561 2.44002521
Ar 3.35701419 9.87225821 12.60326884
Ar 10.11489585 3.46276498 3.51208336
Ar 14.98639919 6.19239562 13.25386571
Ar 11.02403539 3.30935099 8.29113144
Ar 10.11799588 8.98025251 8.09301606
Ar 10.19958959 0.65525558 5.63489836
Ar 3.17688015 1.41467299 4.68671836
Ar 0.81751927 13.42718074 4.32679431
Ar 1.87517806 6.68993280 0.69131654
Ar 7.94665436 6.84712960 13.74635383
Ar 10.75690753 8.90069434 1.65418523
Ar 14.84250223 13.55041350 14.75514466
Ar 4.98946206 13.05793713 5.56134590
Ar 6.12300928 9.78592289 6.55741057
Ar 7.88208396 10.25045952 10.17368698
Ar 7.05303641 6.20356688 3.93682350
Ar 6.02210600 6.23557155 2.34923348
Ar 7.71819979 1.88167257 9.91527141
Ar 12.34969989 8.84163570 13.66329756
Ar 12.69554432 2.32694778 3.12334161
Ar 2.69107103 14.62943766 14.52027290
Ar 3.35265350 3.71706315 11.93151385
Ar 8.25063998 3.76737597 5.04056460
Ar 10.05337868 3.81140223 0.67598519
Ar 1.01652138 12.95875952 8.66321728
Ar 1.18246724 3.73903792 13.21142241
Ar 12.68169859 9.20870424 2.45126506
Ar 13.69855789 1.83274655 10.01069646
Ar 4.30508449 2.77265693 10.25297105
Ar 0.57210499 9.46196377 14.13225946
Ar 1.34353412 10.26530979 10.64858921
Ar 9.49986406 0.20753065 9.50032131
Ar 12.03765313 6.30663892 9.29018416
Ar 6.57869584 10.20732789 1.23865370
Ar 10.03043738 2.17483668 13.61663191
Ar 5.62213199 3.23402148 0.60051585
87
energy=-6.676434
Ar 14.44263755 14.75620848 0.62026592
Ar 14.43123956 10.62520749 10.63047866
Ar 8.56340053 4.28184778 8.17298569
Ar 1.88066950 8.81563678 12.27406470
Ar 7.59937909 5.07850616 11.96257291
Ar 12.99829056 1.15296536 12.07493021
Ar 5.09062954 12.00513384 3.32189228
Ar 0.23378991 3.95644757 7.26253238
Ar 11.15907849 11.67969424 6.49624544
Ar 8.53747134 6.67106255 5.94456523
Ar 7.56017578 1.63649581 2.07167405
Ar 6.84735343 2.07010100 6.01803455
Ar 9.12901692 10.63309983 12.48936059
Ar 12.47286750 11.00880916 3.08798769
Ar 11.69607202 6.08042755 1.98049059
Ar 10.86953470 1.75819165 10.77538801
Ar 6.57186660 7.64596047 11.44193864
Ar 3.54440224 2.17636984 9.52432891
Ar 7.41540977 0.57036806 3.85830303
Ar 1.99860810 1.83297604 1.66881459
Ar 5.51557897 13.32444166 12.05156168
Ar 12.32905873 1.01277061 2.54397268
Ar 3.35701419 9.87225821 12.60326884
Ar 10.11489585 3.46276498 3.51208336
Ar 0.02152202 6.34678088 13.23336036
Ar 11.19474583 3.49436016 8.32787295
Ar 10.02645913 8.85075958 8.11277256
Ar 9.97719405 0.65269288 5.91679115
Ar 3.09751561 1.17286304 4.58818997
Ar 0.81751927 13.42718074 4.32679431
Ar 2.05076728 6.72664482 0.78936335
Ar 8.18686796 6.87946492 13.90388830
Ar 11.00845822 9.26886959 1.89593052
Ar 14.67204907 13.63150230 14.88954060
Ar 4.84729447 13.17196766 5.65337055
Ar 6.25089499 9.79374247 6.47198900
Ar 7.99721157 10.17418884 10.07870809
Ar 6.85774673 6.15028032 4.12384183
Ar 6.43698068 6.04556501 2.37390484
Ar 7.64437228 2.07515774 10.06806526
Ar 12.51514121 8.76830798 13.56197369
Ar 12.58610420 2.28436500 2.98709715
Ar 2.48104948 0.07720898 14.47224386
Ar 3.36049171 3.90320040 11.74013887
Ar 8.50050988 3.71004334 4.96412123
Ar 10.01574401 3.56285432 0.96260952
Ar 0.85693081 13.14399558 8.62212109
Ar 0.98848046 3.55705776 13.02826630
Ar 12.67868733 9.18180966 2.44353061
Ar 13.83891909 1.91981664 10.10624034
Ar 4.30508449 2.77265693 10.25297105
Ar 0.65503252 9.51306036 14.16930254
Ar 1.34353412 10.26530979 10.64858921
Ar 9.49986406 0.20753065 9.50032131
Ar 12.03765313 6.30663892 9.29018416
Ar 6.61355400 10.25377467 1.20066368
Ar 10.03043738 2.17483668 13.61663191
Ar 5.35400184 3.51771406 0.83040250
Ar 10.10340438 13.81893260 7.15125341
Ar 2.28392925 13.50540234 10.09964666
Ar 8.07481834 14.61333154 12.70318547
Ar 11.74546423 11.26265823 13.94282766
Ar 2.38424423 1.97217289 9.50509923
Ar 11.57105873 0.68671269 6.47443177
Ar 4.48571995 14.13520579 13.09256602
Ar 10.59671304 9.53448150 3.35587802
Ar 14.27815596 11.74579062 13.77458196
Ar 5.58494595 7.70571898 2.54151709
Ar 0.21570151 8.94028718 2.71346321
Ar 2.71212647 2.27620900 14.98758482
Ar 5.82234527 3.55229920 7.71023914
Ar 1.58605380 3.23808692 8.32029693
Ar 1.44036091 13.98972958 12.74235692
Ar 1.38296463 0.58669991 8.27845813
Ar 4.99689394 4.94000920 10.45359876
Ar 12.87562025 6.45807411 7.35384039
Ar 14.22485937 4.11611114 6.10309245
Ar 13.93114126 3.07924670 1.65395914
Ar 5.71026817 8.81423664 10.06947818
Ar 3.35368791 14.92032490 0.90805719
Ar 3.09530304 2.28035547 13.18867758
Ar 9.14469977 10.77173677 10.84963615
Ar 13.38595219 13.70675714 2.49019665
Ar 8.66043139 13.96162090 11.24875470
Ar 5.22590181 0.08005087 10.25807123
Ar 5.94985574 14.34414038 14.67938937
Ar 7.95750192 14.73456048 9.03309754
