8
energy=-0.000119
Ar 0.06404941 14.92484380 0.19474717
Ar 3.97704514 8.76484872 3.70733793
Ar 3.83470427 5.22496173 11.22117624
Ar 9.93241081 0.36025998 10.04695282
Ar 12.18811950 14.57504112 4.17337610
Ar 4.70073833 10.04197194 6.24339689
Ar 2.10306413 11.87489208 11.26993417
Ar 9.82597661 0.97097260 0.28309722
55
energy=-3.268395
Ar 0.20140668 14.94826714 0.08623237
Ar 4.09768498 8.85391531 3.52543865
Ar 4.01595866 5.45755226 11.06129334
Ar 10.03638332 0.62154688 10.03901683
Ar 12.18859277 14.34174660 4.35723974
Ar 4.85565921 9.54410065 6.06128415
Ar 1.89608317 11.89819322 10.99513497
Ar 9.77923586 1.29004474 0.16044270
Ar 1.69164990 5.82201635 5.65519159
Ar 10.45026401 2.25435074 5.46119133
Ar 12.85249412 4.11712632 14.84569952
Ar 13.45004318 5.65617320 1.41717414
Ar 10.62816791 11.78089558 6.03247113
Ar 7.85672536 14.08936366 0.86738146
Ar 6.73029185 2.95056833 6.91003753
Ar 12.40582249 8.43266225 9.28966152
Ar 12.82994378 5.35750939 7.99239819
Ar 4.07798497 10.64485826 9.44634635
Ar 8.20688903 0.22579683 14.91144193
Ar 6.37625487 0.33020264 13.44889355
Ar 2.00698465 9.55797691 7.09158699
Ar 9.17705622 6.88325235 9.09263424
Ar 6.60737677 11.31083357 10.25080416
Ar 4.01741093 14.26325507 10.03193006
Ar 4.75777063 6.71162786 2.78908775
Ar 13.04112280 12.31473256 4.61975945
Ar 4.36257227 8.61074967 2.12130608
Ar 1.16420496 10.93687919 7.84576664
Ar 7.96136347 10.89292853 3.78677318
Ar 7.39057399 7.66275563 7.79584639
Ar 11.39839642 2.50576424 1.13929990
Ar 5.34343251 9.39261381 11.63830666
Ar 4.09572566 12.24661123 13.34714478
Ar 11.76854665 11.01798020 11.83689980
Ar 6.85972655 7.94473830 6.37519161
Ar 1.38427762 7.48378529 3.87273946
Ar 4.12981254 11.97089430 10.18911513
Ar 13.59667209 13.14972863 7.28335121
Ar 7.41356547 12.53998084 11.47376406
Ar 14.07188328 2.85768471 2.92784945
Ar 5.40373616 4.80044168 3.86240185
Ar 8.08696760 2.56918379 14.39775022
Ar 4.82031335 9.58912006 12.73458766
Ar 7.08688626 3.23741235 2.36117781
Ar 5.95980728 2.14546798 4.79054294
Ar 9.81558969 11.96494553 2.61727593
Ar 9.18959669 2.92390758 8.43054487
Ar 5.70656166 11.20091067 7.52350924
Ar 8.49217686 4.95746198 9.75609469
Ar 2.08047512 3.50309407 8.88750653
Ar 11.55567788 7.03327592 11.86652852
Ar 12.54403960 8.78040415 11.23009842
Ar 2.57616452 11.57713642 13.87827589
Ar 6.88748444 3.94523430 0.69358095
Ar 7.36240860 1.24153058 12.14929692
94
energy=-8.667256
Ar 14.83181002 14.84263540 0.19458045
Ar 5.42145865 5.56123220 12.79794453
Ar 0.70082721 5.72828949 11.00250176
Ar 9.73314086 11.05223261 1.59485263
Ar 10.26482388 13.64201179 10.24494992
Ar 3.27916558 7.42157760 12.76290876
Ar 5.49419047 11.79579975 13.13498190
Ar 8.19194829 4.67184502 4.41892774
Ar 5.06625294 9.43632339 13.84814484
Ar 1.73499343 9.59225993 8.26706856
Ar 3.84276723 7.85740766 1.84200161
Ar 14.01472202 10.71212642 1.41978436
Ar 9.25057756 5.37423488 9.69309335
Ar 5.20127393 0.73144531 13.49951988
Ar 3.85052804 10.07063600 11.83484010
Ar 9.13952859 14.88039184 8.39857545
Ar 12.71919428 3.83674430 11.00867959
Ar 4.71594675 1.81669590 9.58696258
Ar 3.53921264 4.15649643 10.71453849
Ar 13.66946974 2.54105032 11.06397478
Ar 13.65617392 8.82649265 5.12083972
Ar 12.44018504 10.86997220 7.65485772
Ar 9.58842574 2.55671410 11.23755000
Ar 4.98333942 2.19302984 14.71385602
Ar 13.13906864 3.58574264 3.08949499
Ar 6.53203976 12.28633908 3.31077083
Ar 12.58940687 1.47928738 7.67506135
Ar 3.16022131 6.56305073 10.89634251
Ar 0.79914329 12.61331645 6.30483421
Ar 10.31866367 6.03186760 3.67131671
Ar 2.16995696 7.14653033 12.72149568
Ar 13.49554465 10.74273013 13.71667380
Ar 6.45840572 10.60904788 12.91418754
Ar 10.56056761 4.36096946 12.85588056
Ar 2.91541744 7.53530398 0.38175893
Ar 13.41252149 9.12382713 9.73012604
Ar 10.78477125 12.30308284 14.48768123
Ar 13.15522681 11.97400736 10.66799159
Ar 14.20728986 13.50516618 11.31519766
Ar 1.24350004 3.21311164 9.28032028
Ar 3.33664404 4.52093588 7.48941232
Ar 9.17137553 3.40520309 9.94397206
Ar 1.71679457 14.30130285 13.08041021
Ar 8.80592781 12.76747548 8.55577746
Ar 7.40476304 9.36487999 2.82640997
Ar 8.19426999 5.15975079 12.28155039
Ar 12.90855639 0.20660191 5.44213952
Ar 6.60952966 0.06010559 7.22086183
Ar 8.14724370 4.42255484 0.12761727
Ar 14.20958789 11.50229489 11.42362140
Ar 11.48247874 8.94220376 8.26452286
Ar 11.92257148 0.84004345 8.83389476
Ar 8.13288688 6.46921935 14.61594236
Ar 14.25533207 6.21879318 14.08772977
Ar 3.89438786 14.29218171 1.79724497
Ar 9.01237205 2.38726195 2.57921434
Ar 12.34993185 12.19310202 13.84930908
Ar 11.11760466 14.59096778 2.11638566
Ar 6.31611081 1.84876990 4.04273711
Ar 13.36050757 2.72510168 14.85609704
Ar 4.72483969 3.55179780 7.10529962
Ar 2.92620872 5.18400157 1.34470202
Ar 11.67328322 14.26199842 3.27609206
Ar 9.81897679 14.77494392 6.68535455
Ar 11.53633161 2.04897148 6.96457065
Ar 3.11993108 2.67031471 11.34363898
Ar 14.58218829 10.67455473 3.22412135
Ar 7.14273366 5.40006404 7.25276732
Ar 8.69150382 10.13072295 13.87452706
Ar 12.82177105 10.27714219 11.54161522
Ar 10.65056975 9.40328797 13.43221367
Ar 2.62353676 1.77411072 9.93136820
Ar 4.25640333 1.60945332 6.41402687
Ar 1.01924304 1.05203688 1.04325371
Ar 2.22684764 12.02537924 3.20133434
Ar 8.96789807 6.76930025 3.53277353
Ar 0.44141942 2.80523606 5.85760697
Ar 9.54247011 8.93591053 7.79296690
Ar 13.73558878 12.11583678 2.60768147
Ar 4.30467830 3.77089536 14.04763016
Ar 2.99133352 13.08504237 1.55008438
Ar 5.55777832 5.67940378 1.90966876
Ar 0.80265784 12.36658703 1.77497147
Ar 11.44579492 8.62277005 14.68165975
Ar 9.70410920 0.67303276 2.19557733
Ar 3.54154732 12.32318628 5.61653253
Ar 6.01456447 4.07436796 1.73900592
Ar 5.94782297 4.18998975 13.79137095
Ar 10.92888687 7.55829605 6.22869028
Ar 2.86940779 14.43704844 8.39529035
Ar 5.66539296 4.59667011 9.70959996
Ar 8.86694675 12.19783474 10.66923190
Ar 10.10696866 7.66476849 4.24046723
Ar 7.69727864 13.12174857 10.34947910
